<?xml version="1.0" encoding="utf-8"?>
<routes>
    <route name="capture" />
    <route name="relationships" />
    <route name="companyTimeline" />
</routes>
