<?xml version="1.0" encoding="utf-8"?>
<routes>
    <route name="briefing" />
    <route name="followThroughQueue" />
    <route name="conversationActions" />
</routes>
